/*---------------------------------------------------------------------------*\
| =========                 |                                                 |
| \\      /  F ield         | foam-extend: Open Source CFD                    |
|  \\    /   O peration     | Version:     3.1                                |
|   \\  /    A nd           | Web:         http://www.extend-project.de       |
|    \\/     M anipulation  |                                                 |
\*---------------------------------------------------------------------------*/
Build    : 3.1-bfd58f87a002
Exec     : icoDyMFoam
Date     : Mar 17 2015
Time     : 14:48:54
Host     : fwdh165
PID      : 13722
CtrlDict : /opt/foam.debug/foam-extend-3.1/etc/controlDict
Case     : /data/beckst30/foam/beckst30-3.1/tutorials/incompressible/icoDyMFoam/mixer2D_gradBiLinearFit
nProcs   : 1
SigFpe   : Enabling floating point exception trapping (FOAM_SIGFPE).

// * * * * * * * * * * * * * * * * * * * * * * * * * * * * * * * * * * * * * //
Create time

Create dynamic mesh for time = 0

Selecting dynamicFvMesh mixerFvMesh
Rotating region marker point: (0 0 0)  Attach-detach action = false
Time = 0
Adding zones and modifiers to the mesh
Number of cells in the moving region: 288
Adding point, face and cell zones
Adding topology modifiers
Mixer mesh
    origin       : (0 0 0)
    axis         : (0 0 1)
    rpm          : 10
    marker       : (0 0 0)
    attach-detach: false
Reading transportProperties

Reading field p

Reading field U

Reading/calculating face flux field phi

Reading field rAU if present


Starting time loop

Volume: new = 0.0374692 old = 0.0374692 change = 0 ratio = 0
Courant Number mean: 0 max: 0 velocity magnitude: 0
deltaT = 0.00059952
Time = 0.00059952

Attaching rotors
volume continuity errors : volume = 0.0374692, max error = 5.67576e-12, sum local = 7.30725e-16, global = 3.96658e-17
BiCGStab:  Solving for Ux, Initial residual = 0, Final residual = 0, No Iterations 0
BiCGStab:  Solving for Uy, Initial residual = 0, Final residual = 0, No Iterations 0
CG:  Solving for p, Initial residual = 0, Final residual = 0, No Iterations 0
time step continuity errors : sum local = 0, global = 0, cumulative = 0
CG:  Solving for p, Initial residual = 1, Final residual = 7.43436e-08, No Iterations 55
time step continuity errors : sum local = 7.48099e-12, global = -8.23632e-19, cumulative = -8.23632e-19
CG:  Solving for p, Initial residual = 0.00203803, Final residual = 8.9557e-08, No Iterations 44
time step continuity errors : sum local = 2.12134e-11, global = -8.21934e-19, cumulative = -1.64557e-18
CG:  Solving for p, Initial residual = 2.76266e-06, Final residual = 7.46668e-08, No Iterations 4
time step continuity errors : sum local = 2.03217e-11, global = -8.22853e-19, cumulative = -2.46842e-18
ExecutionTime = 0.18 s  ClockTime = 1 s

Volume: new = 0.0374692 old = 0.0374692 change = 2.34777e-08 ratio = 6.26587e-07
Courant Number mean: 0.000323235 max: 0.0072792 velocity magnitude: 0.196338
deltaT = 0.000718562
Time = 0.00131808



--> FOAM FATAL ERROR: 
object is not allocated

    From function const T& autoPtr<T>::operator()() const
    in file /opt/foam.debug/foam-extend-3.1/src/foam/lnInclude/autoPtrI.H at line 132.

FOAM aborting

Aborted (core dumped)
