/*---------------------------------------------------------------------------*\
| =========                 |                                                 |
| \\      /  F ield         | foam-extend: Open Source CFD                    |
|  \\    /   O peration     | Version:     3.1                                |
|   \\  /    A nd           | Web:         http://www.extend-project.de       |
|    \\/     M anipulation  |                                                 |
\*---------------------------------------------------------------------------*/
Build    : 3.1-bfd58f87a002
Exec     : elicitBugFiniteAreaNgbPolyPatchNormals
Date     : Mar 30 2015
Time     : 18:28:29
Host     : fwdh165
PID      : 4969
CtrlDict : /opt/foam/foam-extend-3.1/etc/controlDict
Case     : /home/beckst30/foam/beckst30-3.1/tutorials/utilities/simpleBlock3D_separateSides
nProcs   : 1
SigFpe   : Enabling floating point exception trapping (FOAM_SIGFPE).

// * * * * * * * * * * * * * * * * * * * * * * * * * * * * * * * * * * * * * //
Create time

Create mesh for time = 0

Information for neighbour polyPatch of finite area boundary edge patch fixedWallSide-1 with ID 0: 
- ID < aMesh.boundary()[patchI].ngbPolyPatchIndex() >: 1
- Name < mesh.boundary()[ID].name() >: "fixedWallSide-1"
- Type < mesh.boundary()[ID].type() >: "wall"
- Normals < mesh.boundary()[ID].nf() >: 4{(1 0 0)}
- PointNormals < aMesh.boundary()[ID].ngbPolyPatchPointNormals() >: 3{(1 0 0)}
- FaceNormals < aMesh.boundary()[ID].ngbPolyPatchFaceNormals() >: 2{(1 0 0)}

Information for neighbour polyPatch of finite area boundary edge patch fixedWallSide-2 with ID 1: 
- ID < aMesh.boundary()[patchI].ngbPolyPatchIndex() >: 2
- Name < mesh.boundary()[ID].name() >: "fixedWallSide-2"
- Type < mesh.boundary()[ID].type() >: "wall"
- Normals < mesh.boundary()[ID].nf() >: 4{(0 -1 0)}
- PointNormals < aMesh.boundary()[ID].ngbPolyPatchPointNormals() >: 3{(0 -1 0)}
- FaceNormals < aMesh.boundary()[ID].ngbPolyPatchFaceNormals() >: 2{(0 -1 0)}

Information for neighbour polyPatch of finite area boundary edge patch fixedWallSide-3 with ID 2: 
- ID < aMesh.boundary()[patchI].ngbPolyPatchIndex() >: 3
- Name < mesh.boundary()[ID].name() >: "fixedWallSide-3"
- Type < mesh.boundary()[ID].type() >: "wall"
- Normals < mesh.boundary()[ID].nf() >: 4{(0 1 0)}
- PointNormals < aMesh.boundary()[ID].ngbPolyPatchPointNormals() >: 3{(0 1 0)}
- FaceNormals < aMesh.boundary()[ID].ngbPolyPatchFaceNormals() >: 2{(0 1 0)}

Information for neighbour polyPatch of finite area boundary edge patch fixedWallSide-4 with ID 3: 
- ID < aMesh.boundary()[patchI].ngbPolyPatchIndex() >: 4
- Name < mesh.boundary()[ID].name() >: "fixedWallSide-4"
- Type < mesh.boundary()[ID].type() >: "wall"
- Normals < mesh.boundary()[ID].nf() >: 4{(-1 0 0)}
- PointNormals < aMesh.boundary()[ID].ngbPolyPatchPointNormals() >: 3{(-1 0 0)}
- FaceNormals < aMesh.boundary()[ID].ngbPolyPatchFaceNormals() >: 2{(-1 0 0)}

End

